15

O       1.321298872816381      5.518925656690625      4.508061715147784
H       0.462098178175558      5.898869602103357      4.214788529990040
H       1.349398711874531      5.645824468492676      5.446526276627333
O       1.888193189063160      2.785536977041425      4.070590915174656
H       1.804971605866627      2.611078892617159      3.090933612093187
H       1.692443130394647      3.758569510623846      4.201681339661584
O       4.002913912538436      5.823019986627189      3.519420041385361
H       3.066650199077622      5.946709338647171      3.672086608278608
H       4.217085159083886      4.855072316861075      3.544714182873102
O       6.736918554460733      6.550332786724764      3.989657494236602
H       5.879661527714311      6.074749585692408      4.208965463964995
H       6.611529485240420      7.069814412436656      3.203321326427156
O       4.630430240850198      3.316155666326841      4.319769880084959
H       3.696143533448051      2.914853070341332      4.421874622863252
H       5.226108622288387      3.172708953973248      5.126879428472297
