15

O       0.824207264060657      4.892722746215482      4.508672385648775
H      -0.078989223866443      5.318166406546915      4.399036392809737
H       0.819014977270605      4.709875615472148      5.461161201562687
O       1.810197759998155      2.785595186534587      3.091953865755154
H       1.848959990671957      3.046105423054692      2.154479924013780
H       1.389533099055325      3.569648483857659      3.522061164843285
O       4.541321032008932      4.357637801272907      3.496210858107241
H       3.565923076295290      4.566546909636511      3.547196553167857
H       4.627598084419260      3.495262572545911      3.891246937565255
O       6.537983378161837      6.206012521949980      3.991981111368188
H       5.924493420993279      5.453949045359911      3.755694490838853
H       6.684759144347087      6.484911137359968      3.069126219245850
O       4.263366468742590      1.798945864969937      4.282968780153507
H       3.341043399716870      1.821082935219454      3.819994813694465
H       4.631473249132219      0.885226688210774      4.267379748707506
