9

O      -0.009192866501915      7.732459111517277      3.904986494660334
H       0.897013052221662      7.969836366277583      3.624723131224302
H      -0.295302579760256      8.368632249816653      4.558249410974868
O       3.867143973978493      0.173569595887729      4.863287793055079
H       3.902771358856914      0.593540505507511      4.011191302466076
H       4.395992036317363     -0.618778025033721      4.648078300822502
O       5.988933446632481      6.026789196744586      4.024073063302832
H       7.000072560324815      6.321093748285719      3.977499647823897
H       5.856494678613037      5.394778037206295      3.271268209440764
