54

Cu      0.000000000000000      0.000000000000000      0.000000000000000
Cu      1.272792372987257      1.272792372987257      1.799999985973380
Cu      0.000000000000000      0.000000000000000      3.599999971946759
Cu      1.272792372987257      1.272792372987257      5.399999957920139
Cu      0.000000000000000      0.000000000000000      7.199999943893519
Cu      1.272792372987257      1.272792372987257      8.999999929866899
Cu      0.000000000000000      2.545584216797304      0.000000000000000
Cu      1.272792372987257      3.818376589784561      1.799999985973380
Cu      0.000000000000000      2.545584216797304      3.599999971946759
Cu      1.272792372987257      3.818376589784561      5.399999957920139
Cu      0.000000000000000      2.545584216797304      7.199999943893519
Cu      1.272792372987257      3.818376589784561      8.999999929866899
Cu      0.000000000000000      5.091168962771818      0.000000000000000
Cu      1.272792372987257      6.363960806581864      1.799999985973380
Cu      0.000000000000000      5.091168962771818      3.599999971946759
Cu      1.272792372987257      6.363960806581864      5.399999957920139
Cu      0.000000000000000      5.091168962771818      7.199999943893519
Cu      1.272792372987257      6.363960806581864      8.999999929866899
Cu      2.545584216797304      0.000000000000000      0.000000000000000
Cu      3.818376589784561      1.272792372987257      1.799999985973380
Cu      2.545584216797304      0.000000000000000      3.599999971946759
Cu      3.818376589784561      1.272792372987257      5.399999957920139
Cu      2.545584216797304      0.000000000000000      7.199999943893519
Cu      3.818376589784561      1.272792372987257      8.999999929866899
Cu      2.545584216797304      2.545584216797304      0.000000000000000
Cu      3.818376589784561      3.818376589784561      1.799999985973380
Cu      2.545584216797304      2.545584216797304      3.599999971946759
Cu      3.818376589784561      3.818376589784561      5.399999957920139
Cu      2.545584216797304      2.545584216797304      7.199999943893519
Cu      3.818376589784561      3.818376589784561      8.999999929866899
Cu      2.545584216797304      5.091168962771818      0.000000000000000
Cu      3.818376589784561      6.363960806581864      1.799999985973380
Cu      2.545584216797304      5.091168962771818      3.599999971946759
Cu      3.818376589784561      6.363960806581864      5.399999957920139
Cu      2.545584216797304      5.091168962771818      7.199999943893519
Cu      3.818376589784561      6.363960806581864      8.999999929866899
Cu      5.091168962771818      0.000000000000000      0.000000000000000
Cu      6.363960806581864      1.272792372987257      1.799999985973380
Cu      5.091168962771818      0.000000000000000      3.599999971946759
Cu      6.363960806581864      1.272792372987257      5.399999957920139
Cu      5.091168962771818      0.000000000000000      7.199999943893519
Cu      6.363960806581864      1.272792372987257      8.999999929866899
Cu      5.091168962771818      2.545584216797304      0.000000000000000
Cu      6.363960806581864      3.818376589784561      1.799999985973380
Cu      5.091168962771818      2.545584216797304      3.599999971946759
Cu      6.363960806581864      3.818376589784561      5.399999957920139
Cu      5.091168962771818      2.545584216797304      7.199999943893519
Cu      6.363960806581864      3.818376589784561      8.999999929866899
Cu      5.091168962771818      5.091168962771818      0.000000000000000
Cu      6.363960806581864      6.363960806581864      1.799999985973380
Cu      5.091168962771818      5.091168962771818      3.599999971946759
Cu      6.363960806581864      6.363960806581864      5.399999957920139
Cu      5.091168962771818      5.091168962771818      7.199999943893519
Cu      6.363960806581864      6.363960806581864      8.999999929866899
