61

C       3.666337627063042      0.818773672462588      9.592930294050628
C       2.336676695965331      1.575161056040173      9.163172781098680
C       2.251376504685703      3.025297116780900      9.682924816365167
C       1.044763033651561      3.787381622207415      9.143319110512746
C       1.083588765590630      5.286680891695577      9.617533859278584
C      -0.245449853107458      5.901219678095471      9.141119850025643
C       6.016979309615153      0.841547872073624      9.626384348125265
C       4.785608811961992      1.684942043434905      9.053866994839034
C       4.726606082161334      3.145774892309970      9.587045314291949
C       3.498487907644297      3.900639833052762      9.076435344515160
C       3.528946818707142      5.361947883062914      9.609711561752029
C       2.211224125479751      6.169632117900926      9.174926865299723
C       8.739765923850708      0.880210617431839      9.627891444820950
C       7.428243070822282      1.583841149825051      9.179718564941378
C       7.425472298947771      3.041008917339751      9.670955886216635
C       6.148779889918658      3.804533843133421      9.177716687553817
C       6.222676841487846      5.241499741457636      9.652784999160293
C       4.879734091582193      6.061708542515273      9.167407786314822
C       1.059440821940970      0.807838225406286      9.648413466223827
C      -0.270842950733575      1.465406527505968      8.992951289422187
C      -0.295161289445036      2.980204339137124      9.522868818903607
C      -1.661687350916677      3.792707790831741      9.150931853863916
C      -1.530587401239959      5.281639949587746      9.673863185811472
C      -2.800105754825458      6.070797161106707      9.178474469319344
O       2.228131866534476      2.947130234299673     11.228994355254594
O       4.670284164109392      3.278997371778259     11.066851282874570
O       7.412900635956405      2.885559936673360     11.178955358223678
O      -0.332583643421690      3.071364638846536     10.933884395998984
O      -1.487791252690029      5.204306521213156     11.230047947080825
O       6.264282870491217      5.297520557676767     11.122143422074753
O       3.562369122149143      5.583395316253617     11.137519195104897
O       0.965712425228692      5.191038990189900     11.021923079343278
O       1.042560598101194      0.824706807347430     11.064229209796226
O       8.632189488715184      0.846826414748998     11.133312765458124
O       5.982243588336533      0.934193572213088     11.042415466822362
O       3.508383521481841      0.771936197555582     11.167358439654171
H       3.647128494319575      3.988280045957504      7.981242781051288
H       6.175807615948207      4.014213962692817      8.110243484733697
H      -1.836026899645776      3.918216983278851      8.074267901250726
H       1.032903643185614      3.704830506536667      8.024333152130291
H      -2.977888130486486      6.044174784820450      8.094282441708671
H       4.842034448747204      6.087310665139562      7.990823534448545
H       2.216340210751482      6.240381523421680      8.134991515340138
H      -0.403456876409715      5.826509381153647      8.055580537236875
H       2.082271047746291      1.322863649828018      8.163825323189339
H       4.646905644123892      1.765001263621108      8.004268339837340
H       7.519147777938993      1.644217094487122      8.046048997320199
H      -0.342352254728698      1.135774634564804      7.871050622963947
H       7.965054721002928      1.929256282248493     11.350887150644711
H       0.539312012500560      2.774994179475361     11.303544840678827
H       2.888946141643758     -0.003060760985901     11.412640543585880
H       3.657294517711717      3.263342722358149     11.146094511802083
H       0.047531755407265      4.926847796993113     11.295541035369050
H       5.406807822734042      4.931996691251899     11.592257576635934
H       2.656270097222100      5.368595936359227     11.500907831485138
H       5.032698056067776      0.833862631444605     11.296239549286994
H      -2.321380828693984      5.464652712797986     11.588665521730626
H       8.172573680834381     -0.159649589363847     11.157467059234310
H       6.387413940554054      2.769479094586865     11.317826804414734
H       2.449772449407036      1.924550838492159     11.437237758687308
H       0.155979216231377      0.309218882043664     11.262677013884192
