61

C       3.273870702962317      1.240648561685978      9.870728220862643
C       2.040268665012207      2.058372346562807      9.358967290652879
C       2.027917139740437      3.570288788282442      9.733840660033989
C       0.727507008133853      4.281212440991644      9.389444193740882
C       0.670686075972350      5.761755553428581      9.813306143389939
C      -0.625471587570143      6.560350640497949      9.458945799399128
C       5.827503175955086      1.339922735564965      9.813826853765136
C       4.584412990619566      2.051925909783718      9.200368118052001
C       4.534806860546890      3.622813859848588      9.605152170905811
C       3.226266979454415      4.352909073719308      9.163506691918545
C       3.186080732906986      5.847404472489971      9.732581218272847
C       1.885099619090204      6.606847325281351      9.163052128694671
C       8.389630530709036      1.282414931384150      9.783300737196550
C       7.062327084084387      2.003183926095893      9.264110688127680
C       7.071717333685843      3.507145775986332      9.784615742564801
C       5.786835378146044      4.247685889639162      9.263801119459499
C       5.770174762848652      5.838720674464618      9.771196866859322
C       4.496182745125046      6.594038061722443      9.249357756674371
C       0.672529200196743      1.280776069563034      9.891758781564873
C      -0.591584137360056      2.035927824353952      9.254866491436340
C      -0.650555116528080      3.465284683567469      9.760249777904390
C      -1.783708207191751      4.317791286494660      9.288213122537231
C      -1.939823421966242      5.840675455080441      9.877303776881110
C      -3.266690826569386      6.569541390291021      9.287732629630039
O       2.103420144143685      3.603424277676317     11.193856459295944
O       4.519688796818293      3.728679465062358     11.131963892748399
O       7.060188678976498      3.602278079838237     11.237390280877399
O      -0.786602873123570      3.608457811303202     11.193095502467154
O      -2.046842633499042      5.777421844747324     11.391689888642446
O       5.891590769572051      5.711226538300683     11.264279891654992
O       3.155211180328744      5.728596780237440     11.073542199524937
O       0.574554685546901      6.061936617893026     11.320218685406482
O       0.672540312918165      1.324696719685411     11.271776216019838
O       8.486385291888528      1.252136469750108     11.149740542782869
O       5.722458853772110      1.480417697438033     11.200702424869009
O       3.260017372766966      1.577482027285706     11.258398616136782
H       3.085476736697852      4.333472923952508      8.071514063046951
H       5.881578736748184      4.045554482988460      8.148261163072236
H      -1.864192356678037      4.334551916284848      8.271550986298243
H       0.699966509387268      4.368518213899310      8.270532849345116
H      -2.939758266579308      6.447713154520593      8.135993776976946
H       4.646198134193369      6.484990513941552      8.174532165690678
H       1.679553431899733      6.444103636767337      8.063475861218487
H      -0.762141127388045      6.530821493794066      8.331565502925498
H       1.978364456566028      2.013376408348563      8.271264701427327
H       4.546561473925146      2.113474511144398      8.058994788599431
H       7.036007397162574      1.941040000373329      8.177366438830457
H      -0.575104500668677      1.989694669821410      8.121858924505574
H       8.097072793139974      3.781708842510171     11.359323822912732
H      -0.359034566291723      2.850272812741331     11.648852550128526
H       2.060650454454284     -0.064905172407287     11.427695106049210
H       3.532633596333140      3.645400730727084     11.313314510340257
H      -0.201515444377606      5.484678895154564     11.599769247139887
H       4.894937882018903      4.649087441763047     11.426234047770842
H       2.294263142538640      5.764022548598636     11.449316228518427
H       4.267877704462647      1.527452026267368     11.480687970269495
H      -3.627375367403648      5.273902320414882     11.491239234670928
H       7.922600420931023      0.509095464600154     11.466441461406696
H       6.197878009869192      2.342846902240506     11.494813297551074
H       1.579659591507176      2.797937715793778     11.653688700655866
H      -0.064210891907027      0.571388618296098     11.387761806208431
