10

C      -0.713629864964026      2.150031660381780      8.996922764387469
C       1.857192400536698      2.145873385861170      9.222180802671444
C       0.504740336157214      1.370843618332631      9.497326493304111
C       3.112061012224948      1.471038031380789      9.608174301955343
O       0.380633463318097      1.474938596599855     10.936101648511244
O       3.183940740267466      1.511416369255652     11.112616115575763
H       0.054830696672572      0.584198411032216     11.267265509476990
H       2.120824253421920      1.515744509660854     11.333804251933289
H      -0.910257299447654      1.544359767322093      7.817004696094640
H       1.809227778171192      2.233297165286790      8.016681778842747
